Circuit: * C:\Users\n10496262\OneDrive - Queensland University of Technology\EGB240\EGB240v1.asc

u1:c_cc3: both pins shorted together -- ignoring.
u2:c_cc3: both pins shorted together -- ignoring.
u3:c_cc3: both pins shorted together -- ignoring.
u4:c_cc3: both pins shorted together -- ignoring.
Direct Newton iteration for .op point succeeded.

Date: Mon Jun 08 22:54:41 2020
Total elapsed time: 0.086 seconds.

tnom = 27
temp = 27
method = trap
totiter = 19
traniter = 0
tranpoints = 0
accept = 0
rejected = 0
matrix size = 480
fillins = 533
solver = Normal
Matrix Compiler1:    2612 opcodes
Matrix Compiler2: 45.13 KB object code size
